* NGSPICE file created from RAM32_1RW1R.ext - technology: gf180mcuC

* Black-box entry subcircuit for gf180mcu_fd_sc_mcu7t5v0__latq_1 abstract view
.subckt gf180mcu_fd_sc_mcu7t5v0__latq_1 D E Q VDD VNW VPW VSS
.ends

* Black-box entry subcircuit for gf180mcu_fd_sc_mcu7t5v0__filltie abstract view
.subckt gf180mcu_fd_sc_mcu7t5v0__filltie VDD VSS
.ends

* Black-box entry subcircuit for gf180mcu_fd_sc_mcu7t5v0__bufz_1 abstract view
.subckt gf180mcu_fd_sc_mcu7t5v0__bufz_1 EN I Z VDD VNW VPW VSS
.ends

* Black-box entry subcircuit for gf180mcu_fd_sc_mcu7t5v0__fill_1 abstract view
.subckt gf180mcu_fd_sc_mcu7t5v0__fill_1 VDD VNW VPW VSS
.ends

* Black-box entry subcircuit for gf180mcu_fd_sc_mcu7t5v0__fillcap_16 abstract view
.subckt gf180mcu_fd_sc_mcu7t5v0__fillcap_16 VDD VNW VPW VSS
.ends

* Black-box entry subcircuit for gf180mcu_fd_sc_mcu7t5v0__antenna abstract view
.subckt gf180mcu_fd_sc_mcu7t5v0__antenna I VDD VNW VPW VSS
.ends

* Black-box entry subcircuit for gf180mcu_fd_sc_mcu7t5v0__nor4_2 abstract view
.subckt gf180mcu_fd_sc_mcu7t5v0__nor4_2 A1 A2 A3 A4 ZN VDD VNW VPW VSS
.ends

* Black-box entry subcircuit for gf180mcu_fd_sc_mcu7t5v0__clkbuf_2 abstract view
.subckt gf180mcu_fd_sc_mcu7t5v0__clkbuf_2 I Z VDD VNW VPW VSS
.ends

* Black-box entry subcircuit for gf180mcu_fd_sc_mcu7t5v0__icgtp_1 abstract view
.subckt gf180mcu_fd_sc_mcu7t5v0__icgtp_1 CLK E TE Q VDD VNW VPW VSS
.ends

* Black-box entry subcircuit for gf180mcu_fd_sc_mcu7t5v0__inv_2 abstract view
.subckt gf180mcu_fd_sc_mcu7t5v0__inv_2 I ZN VDD VNW VPW VSS
.ends

* Black-box entry subcircuit for gf180mcu_fd_sc_mcu7t5v0__fillcap_8 abstract view
.subckt gf180mcu_fd_sc_mcu7t5v0__fillcap_8 VDD VNW VPW VSS
.ends

* Black-box entry subcircuit for gf180mcu_fd_sc_mcu7t5v0__fillcap_32 abstract view
.subckt gf180mcu_fd_sc_mcu7t5v0__fillcap_32 VDD VNW VPW VSS
.ends

* Black-box entry subcircuit for gf180mcu_fd_sc_mcu7t5v0__clkbuf_4 abstract view
.subckt gf180mcu_fd_sc_mcu7t5v0__clkbuf_4 I Z VDD VNW VPW VSS
.ends

* Black-box entry subcircuit for gf180mcu_fd_sc_mcu7t5v0__dffq_1 abstract view
.subckt gf180mcu_fd_sc_mcu7t5v0__dffq_1 D CLK Q VDD VNW VPW VSS
.ends

* Black-box entry subcircuit for gf180mcu_fd_sc_mcu7t5v0__fillcap_4 abstract view
.subckt gf180mcu_fd_sc_mcu7t5v0__fillcap_4 VDD VNW VPW VSS
.ends

* Black-box entry subcircuit for gf180mcu_fd_sc_mcu7t5v0__and4_2 abstract view
.subckt gf180mcu_fd_sc_mcu7t5v0__and4_2 A1 A2 A3 A4 Z VDD VNW VPW VSS
.ends

* Black-box entry subcircuit for gf180mcu_fd_sc_mcu7t5v0__and2_1 abstract view
.subckt gf180mcu_fd_sc_mcu7t5v0__and2_1 A1 A2 Z VDD VNW VPW VSS
.ends

* Black-box entry subcircuit for gf180mcu_fd_sc_mcu7t5v0__clkbuf_16 abstract view
.subckt gf180mcu_fd_sc_mcu7t5v0__clkbuf_16 I Z VDD VNW VPW VSS
.ends

* Black-box entry subcircuit for gf180mcu_fd_sc_mcu7t5v0__tiel abstract view
.subckt gf180mcu_fd_sc_mcu7t5v0__tiel ZN VDD VNW VPW VSS
.ends

* Black-box entry subcircuit for gf180mcu_fd_sc_mcu7t5v0__nor3_2 abstract view
.subckt gf180mcu_fd_sc_mcu7t5v0__nor3_2 A1 A2 A3 ZN VDD VNW VPW VSS
.ends

* Black-box entry subcircuit for gf180mcu_fd_sc_mcu7t5v0__and3_2 abstract view
.subckt gf180mcu_fd_sc_mcu7t5v0__and3_2 A1 A2 A3 Z VDD VNW VPW VSS
.ends

.subckt RAM32_1RW1R A0[0] A0[1] A0[2] A0[3] A0[4] A1[0] A1[1] A1[2] A1[3] A1[4] CLK
+ Di0[0] Di0[10] Di0[11] Di0[12] Di0[13] Di0[14] Di0[15] Di0[16] Di0[17] Di0[18] Di0[19]
+ Di0[1] Di0[20] Di0[21] Di0[22] Di0[23] Di0[24] Di0[25] Di0[26] Di0[27] Di0[28] Di0[29]
+ Di0[2] Di0[30] Di0[31] Di0[3] Di0[4] Di0[5] Di0[6] Di0[7] Di0[8] Di0[9] Do0[0] Do0[10]
+ Do0[11] Do0[12] Do0[13] Do0[14] Do0[15] Do0[16] Do0[17] Do0[18] Do0[19] Do0[1] Do0[20]
+ Do0[21] Do0[22] Do0[23] Do0[24] Do0[25] Do0[26] Do0[27] Do0[28] Do0[29] Do0[2] Do0[30]
+ Do0[31] Do0[3] Do0[4] Do0[5] Do0[6] Do0[7] Do0[8] Do0[9] Do1[0] Do1[10] Do1[11]
+ Do1[12] Do1[13] Do1[14] Do1[15] Do1[16] Do1[17] Do1[18] Do1[19] Do1[1] Do1[20] Do1[21]
+ Do1[22] Do1[23] Do1[24] Do1[25] Do1[26] Do1[27] Do1[28] Do1[29] Do1[2] Do1[30] Do1[31]
+ Do1[3] Do1[4] Do1[5] Do1[6] Do1[7] Do1[8] Do1[9] EN0 EN1 VDD VSS WE0[0] WE0[1] WE0[2]
+ WE0[3]
XSLICE\[2\].RAM8.WORD\[7\].W.BYTE\[2\].B.BIT\[6\].genblk1.STORAGE DIBUF\[22\].X SLICE\[2\].RAM8.WORD\[7\].W.BYTE\[2\].B.GCLK
+ SLICE\[2\].RAM8.WORD\[7\].W.BYTE\[2\].B.Q_WIRE\[6\] VDD VDD VSS VSS gf180mcu_fd_sc_mcu7t5v0__latq_1
XSLICE\[2\].RAM8.WORD\[1\].W.BYTE\[3\].B.BIT\[7\].genblk1.STORAGE DIBUF\[31\].X SLICE\[2\].RAM8.WORD\[1\].W.BYTE\[3\].B.GCLK
+ SLICE\[2\].RAM8.WORD\[1\].W.BYTE\[3\].B.Q_WIRE\[7\] VDD VDD VSS VSS gf180mcu_fd_sc_mcu7t5v0__latq_1
Xtap_3_8 VDD VSS gf180mcu_fd_sc_mcu7t5v0__filltie
Xtap_24_24 VDD VSS gf180mcu_fd_sc_mcu7t5v0__filltie
Xtap_24_13 VDD VSS gf180mcu_fd_sc_mcu7t5v0__filltie
Xtap_24_57 VDD VSS gf180mcu_fd_sc_mcu7t5v0__filltie
Xtap_24_46 VDD VSS gf180mcu_fd_sc_mcu7t5v0__filltie
Xtap_24_35 VDD VSS gf180mcu_fd_sc_mcu7t5v0__filltie
XSLICE\[2\].RAM8.WORD\[7\].W.BYTE\[2\].B.BIT\[4\].OBUF0 SLICE\[2\].RAM8.WORD\[7\].W.BYTE\[2\].B.SEL0_B
+ SLICE\[2\].RAM8.WORD\[7\].W.BYTE\[2\].B.Q_WIRE\[4\] BYTE\[2\].FLOATBUF0\[20\].Z
+ VDD VDD VSS VSS gf180mcu_fd_sc_mcu7t5v0__bufz_1
XSLICE\[2\].RAM8.WORD\[5\].W.BYTE\[0\].B.BIT\[5\].genblk1.STORAGE DIBUF\[5\].X SLICE\[2\].RAM8.WORD\[5\].W.BYTE\[0\].B.GCLK
+ SLICE\[2\].RAM8.WORD\[5\].W.BYTE\[0\].B.Q_WIRE\[5\] VDD VDD VSS VSS gf180mcu_fd_sc_mcu7t5v0__latq_1
XSLICE\[1\].RAM8.WORD\[6\].W.BYTE\[2\].B.BIT\[1\].genblk1.STORAGE DIBUF\[17\].X SLICE\[1\].RAM8.WORD\[6\].W.BYTE\[2\].B.GCLK
+ SLICE\[1\].RAM8.WORD\[6\].W.BYTE\[2\].B.Q_WIRE\[1\] VDD VDD VSS VSS gf180mcu_fd_sc_mcu7t5v0__latq_1
Xfill_33_552 VDD VDD VSS VSS gf180mcu_fd_sc_mcu7t5v0__fill_1
Xfill_33_541 VDD VDD VSS VSS gf180mcu_fd_sc_mcu7t5v0__fill_1
Xfill_33_530 VDD VDD VSS VSS gf180mcu_fd_sc_mcu7t5v0__fill_1
Xfill_6_109 VDD VDD VSS VSS gf180mcu_fd_sc_mcu7t5v0__fill_1
XSLICE\[1\].RAM8.WORD\[0\].W.BYTE\[3\].B.BIT\[2\].genblk1.STORAGE DIBUF\[26\].X SLICE\[1\].RAM8.WORD\[0\].W.BYTE\[3\].B.GCLK
+ SLICE\[1\].RAM8.WORD\[0\].W.BYTE\[3\].B.Q_WIRE\[2\] VDD VDD VSS VSS gf180mcu_fd_sc_mcu7t5v0__latq_1
Xfill_12_12 VDD VDD VSS VSS gf180mcu_fd_sc_mcu7t5v0__fill_1
Xfill_33_596 VDD VDD VSS VSS gf180mcu_fd_sc_mcu7t5v0__fill_1
Xfill_33_585 VDD VDD VSS VSS gf180mcu_fd_sc_mcu7t5v0__fill_1
Xfill_33_574 VDD VDD VSS VSS gf180mcu_fd_sc_mcu7t5v0__fill_1
Xfill_33_563 VDD VDD VSS VSS gf180mcu_fd_sc_mcu7t5v0__fill_1
Xfill_20_202 VDD VDD VSS VSS gf180mcu_fd_sc_mcu7t5v0__fill_1
Xfill_12_23 VDD VDD VSS VSS gf180mcu_fd_sc_mcu7t5v0__fill_1
Xfill_12_34 VDD VDD VSS VSS gf180mcu_fd_sc_mcu7t5v0__fill_1
Xfill_12_45 VDD VDD VSS VSS gf180mcu_fd_sc_mcu7t5v0__fill_1
Xfill_20_224 VDD VDD VSS VSS gf180mcu_fd_sc_mcu7t5v0__fill_1
Xfill_20_213 VDD VDD VSS VSS gf180mcu_fd_sc_mcu7t5v0__fill_1
Xfill_12_56 VDD VDD VSS VSS gf180mcu_fd_sc_mcu7t5v0__fill_1
Xfill_12_67 VDD VDD VSS VSS gf180mcu_fd_sc_mcu7t5v0__fill_1
Xfill_12_78 VDD VDD VSS VSS gf180mcu_fd_sc_mcu7t5v0__fill_1
Xfill_12_89 VDD VDD VSS VSS gf180mcu_fd_sc_mcu7t5v0__fill_1
XSLICE\[1\].RAM8.WORD\[4\].W.BYTE\[0\].B.BIT\[0\].genblk1.STORAGE DIBUF\[0\].X SLICE\[1\].RAM8.WORD\[4\].W.BYTE\[0\].B.GCLK
+ SLICE\[1\].RAM8.WORD\[4\].W.BYTE\[0\].B.Q_WIRE\[0\] VDD VDD VSS VSS gf180mcu_fd_sc_mcu7t5v0__latq_1
Xtap_22_0 VDD VSS gf180mcu_fd_sc_mcu7t5v0__filltie
XSLICE\[1\].RAM8.WORD\[2\].W.BYTE\[3\].B.BIT\[2\].OBUF1 SLICE\[1\].RAM8.WORD\[2\].W.BYTE\[3\].B.SEL1_B
+ SLICE\[1\].RAM8.WORD\[2\].W.BYTE\[3\].B.Q_WIRE\[2\] BYTE\[3\].FLOATBUF1\[26\].Z
+ VDD VDD VSS VSS gf180mcu_fd_sc_mcu7t5v0__bufz_1
XSLICE\[1\].RAM8.WORD\[2\].W.BYTE\[1\].B.BIT\[3\].OBUF0 SLICE\[1\].RAM8.WORD\[2\].W.BYTE\[1\].B.SEL0_B
+ SLICE\[1\].RAM8.WORD\[2\].W.BYTE\[1\].B.Q_WIRE\[3\] BYTE\[1\].FLOATBUF0\[11\].Z
+ VDD VDD VSS VSS gf180mcu_fd_sc_mcu7t5v0__bufz_1
Xfill_0_14 VDD VDD VSS VSS gf180mcu_fd_sc_mcu7t5v0__fill_1
Xfill_0_25 VDD VDD VSS VSS gf180mcu_fd_sc_mcu7t5v0__fill_1
Xfill_0_36 VDD VDD VSS VSS gf180mcu_fd_sc_mcu7t5v0__fill_1
Xfill_0_47 VDD VDD VSS VSS gf180mcu_fd_sc_mcu7t5v0__fill_1
Xfill_0_58 VDD VDD VSS VSS gf180mcu_fd_sc_mcu7t5v0__fill_1
Xfill_0_69 VDD VDD VSS VSS gf180mcu_fd_sc_mcu7t5v0__fill_1
XSLICE\[0\].RAM8.WORD\[7\].W.BYTE\[0\].B.BIT\[4\].OBUF1 SLICE\[0\].RAM8.WORD\[7\].W.BYTE\[0\].B.SEL1_B
+ SLICE\[0\].RAM8.WORD\[7\].W.BYTE\[0\].B.Q_WIRE\[4\] BYTE\[0\].FLOATBUF1\[4\].Z VDD
+ VDD VSS VSS gf180mcu_fd_sc_mcu7t5v0__bufz_1
Xfill_9_12 VDD VDD VSS VSS gf180mcu_fd_sc_mcu7t5v0__fill_1
Xfill_9_23 VDD VDD VSS VSS gf180mcu_fd_sc_mcu7t5v0__fill_1
Xfill_9_34 VDD VDD VSS VSS gf180mcu_fd_sc_mcu7t5v0__fill_1
Xfill_11_202 VDD VDD VSS VSS gf180mcu_fd_sc_mcu7t5v0__fill_1
XSLICE\[0\].RAM8.WORD\[3\].W.BYTE\[2\].B.BIT\[7\].genblk1.STORAGE DIBUF\[23\].X SLICE\[0\].RAM8.WORD\[3\].W.BYTE\[2\].B.GCLK
+ SLICE\[0\].RAM8.WORD\[3\].W.BYTE\[2\].B.Q_WIRE\[7\] VDD VDD VSS VSS gf180mcu_fd_sc_mcu7t5v0__latq_1
Xfill_5_120 VDD VDD VSS VSS gf180mcu_fd_sc_mcu7t5v0__fill_1
Xfill_5_131 VDD VDD VSS VSS gf180mcu_fd_sc_mcu7t5v0__fill_1
Xfill_9_45 VDD VDD VSS VSS gf180mcu_fd_sc_mcu7t5v0__fill_1
Xfill_9_56 VDD VDD VSS VSS gf180mcu_fd_sc_mcu7t5v0__fill_1
Xfill_9_67 VDD VDD VSS VSS gf180mcu_fd_sc_mcu7t5v0__fill_1
Xfill_11_213 VDD VDD VSS VSS gf180mcu_fd_sc_mcu7t5v0__fillcap_16
XSLICE\[2\].RAM8.WORD\[4\].W.BYTE\[1\].B.DIODE_CLK SLICE\[2\].RAM8.WORD\[4\].W.BYTE\[0\].B.CLK
+ VDD VDD VSS VSS gf180mcu_fd_sc_mcu7t5v0__antenna
Xfill_5_142 VDD VDD VSS VSS gf180mcu_fd_sc_mcu7t5v0__fill_1
Xfill_5_153 VDD VDD VSS VSS gf180mcu_fd_sc_mcu7t5v0__fill_1
Xfill_5_164 VDD VDD VSS VSS gf180mcu_fd_sc_mcu7t5v0__fill_1
Xfill_9_78 VDD VDD VSS VSS gf180mcu_fd_sc_mcu7t5v0__fill_1
Xfill_9_89 VDD VDD VSS VSS gf180mcu_fd_sc_mcu7t5v0__fill_1
Xfill_5_175 VDD VDD VSS VSS gf180mcu_fd_sc_mcu7t5v0__fill_1
Xfill_5_186 VDD VDD VSS VSS gf180mcu_fd_sc_mcu7t5v0__fill_1
Xfill_5_197 VDD VDD VSS VSS gf180mcu_fd_sc_mcu7t5v0__fill_1
XSLICE\[2\].RAM8.WORD\[6\].W.BYTE\[2\].B.BIT\[0\].OBUF1 SLICE\[2\].RAM8.WORD\[6\].W.BYTE\[2\].B.SEL1_B
+ SLICE\[2\].RAM8.WORD\[6\].W.BYTE\[2\].B.Q_WIRE\[0\] BYTE\[2\].FLOATBUF1\[16\].Z
+ VDD VDD VSS VSS gf180mcu_fd_sc_mcu7t5v0__bufz_1
XSLICE\[2\].RAM8.WORD\[6\].W.BYTE\[0\].B.BIT\[1\].OBUF0 SLICE\[2\].RAM8.WORD\[6\].W.BYTE\[0\].B.SEL0_B
+ SLICE\[2\].RAM8.WORD\[6\].W.BYTE\[0\].B.Q_WIRE\[1\] BYTE\[0\].FLOATBUF0\[1\].Z VDD
+ VDD VSS VSS gf180mcu_fd_sc_mcu7t5v0__bufz_1
XSLICE\[0\].RAM8.WORD\[1\].W.BYTE\[3\].B.BIT\[5\].OBUF0 SLICE\[0\].RAM8.WORD\[1\].W.BYTE\[3\].B.SEL0_B
+ SLICE\[0\].RAM8.WORD\[1\].W.BYTE\[3\].B.Q_WIRE\[5\] BYTE\[3\].FLOATBUF0\[29\].Z
+ VDD VDD VSS VSS gf180mcu_fd_sc_mcu7t5v0__bufz_1
XSLICE\[0\].RAM8.WORD\[1\].W.BYTE\[0\].B.BIT\[6\].genblk1.STORAGE DIBUF\[6\].X SLICE\[0\].RAM8.WORD\[1\].W.BYTE\[0\].B.GCLK
+ SLICE\[0\].RAM8.WORD\[1\].W.BYTE\[0\].B.Q_WIRE\[6\] VDD VDD VSS VSS gf180mcu_fd_sc_mcu7t5v0__latq_1
XSLICE\[2\].RAM8.DEC1.AND0 SLICE\[2\].RAM8.DEC1.A_buf\[0\] SLICE\[2\].RAM8.DEC1.A_buf\[1\]
+ SLICE\[2\].RAM8.DEC1.A_buf\[2\] SLICE\[2\].RAM8.DEC1.EN_buf_N SLICE\[2\].RAM8.WORD\[0\].W.SEL1
+ VDD VDD VSS VSS gf180mcu_fd_sc_mcu7t5v0__nor4_2
XSLICE\[0\].RAM8.DEC1.ENBUF SLICE\[0\].RAM8.DEC1.EN SLICE\[0\].RAM8.DEC1.EN_buf VDD
+ VDD VSS VSS gf180mcu_fd_sc_mcu7t5v0__clkbuf_2
Xfill_29_1 VDD VDD VSS VSS gf180mcu_fd_sc_mcu7t5v0__fillcap_16
XSLICE\[3\].RAM8.WORD\[2\].W.BYTE\[3\].B.BIT\[7\].OBUF0 SLICE\[3\].RAM8.WORD\[2\].W.BYTE\[3\].B.SEL0_B
+ SLICE\[3\].RAM8.WORD\[2\].W.BYTE\[3\].B.Q_WIRE\[7\] BYTE\[3\].FLOATBUF0\[31\].Z
+ VDD VDD VSS VSS gf180mcu_fd_sc_mcu7t5v0__bufz_1
Xtap_10_15 VDD VSS gf180mcu_fd_sc_mcu7t5v0__filltie
Xtap_10_26 VDD VSS gf180mcu_fd_sc_mcu7t5v0__filltie
Xtap_10_37 VDD VSS gf180mcu_fd_sc_mcu7t5v0__filltie
XSLICE\[0\].RAM8.WORD\[3\].W.BYTE\[2\].B.genblk1.CG SLICE\[0\].RAM8.WORD\[3\].W.BYTE\[2\].B.CLK_B
+ SLICE\[0\].RAM8.WORD\[3\].W.BYTE\[2\].B.WE0_WIRE SLICE\[0\].RAM8.WORD\[3\].W.BYTE\[2\].B.WE0_WIRE
+ SLICE\[0\].RAM8.WORD\[3\].W.BYTE\[2\].B.GCLK VDD VDD VSS VSS gf180mcu_fd_sc_mcu7t5v0__icgtp_1
Xtap_10_48 VDD VSS gf180mcu_fd_sc_mcu7t5v0__filltie
XSLICE\[3\].RAM8.WORD\[5\].W.BYTE\[2\].B.BIT\[0\].genblk1.STORAGE DIBUF\[16\].X SLICE\[3\].RAM8.WORD\[5\].W.BYTE\[2\].B.GCLK
+ SLICE\[3\].RAM8.WORD\[5\].W.BYTE\[2\].B.Q_WIRE\[0\] VDD VDD VSS VSS gf180mcu_fd_sc_mcu7t5v0__latq_1
Xtap_19_13 VDD VSS gf180mcu_fd_sc_mcu7t5v0__filltie
Xtap_19_57 VDD VSS gf180mcu_fd_sc_mcu7t5v0__filltie
Xtap_19_46 VDD VSS gf180mcu_fd_sc_mcu7t5v0__filltie
Xtap_19_35 VDD VSS gf180mcu_fd_sc_mcu7t5v0__filltie
Xtap_19_24 VDD VSS gf180mcu_fd_sc_mcu7t5v0__filltie
XSLICE\[1\].RAM8.WORD\[5\].W.BYTE\[2\].B.BIT\[3\].OBUF0 SLICE\[1\].RAM8.WORD\[5\].W.BYTE\[2\].B.SEL0_B
+ SLICE\[1\].RAM8.WORD\[5\].W.BYTE\[2\].B.Q_WIRE\[3\] BYTE\[2\].FLOATBUF0\[19\].Z
+ VDD VDD VSS VSS gf180mcu_fd_sc_mcu7t5v0__bufz_1
Xtap_1_5 VDD VSS gf180mcu_fd_sc_mcu7t5v0__filltie
XSLICE\[0\].RAM8.WORD\[5\].W.BYTE\[1\].B.SEL0INV SLICE\[0\].RAM8.WORD\[5\].W.BYTE\[0\].B.SEL0
+ SLICE\[0\].RAM8.WORD\[5\].W.BYTE\[1\].B.SEL0_B VDD VDD VSS VSS gf180mcu_fd_sc_mcu7t5v0__inv_2
Xfill_23_22 VDD VDD VSS VSS gf180mcu_fd_sc_mcu7t5v0__fill_1
Xfill_23_11 VDD VDD VSS VSS gf180mcu_fd_sc_mcu7t5v0__fill_1
XSLICE\[0\].RAM8.WORD\[0\].W.BYTE\[3\].B.BIT\[1\].OBUF1 SLICE\[0\].RAM8.WORD\[0\].W.BYTE\[3\].B.SEL1_B
+ SLICE\[0\].RAM8.WORD\[0\].W.BYTE\[3\].B.Q_WIRE\[1\] BYTE\[3\].FLOATBUF1\[25\].Z
+ VDD VDD VSS VSS gf180mcu_fd_sc_mcu7t5v0__bufz_1
XSLICE\[1\].RAM8.WORD\[2\].W.BYTE\[1\].B.BIT\[7\].OBUF1 SLICE\[1\].RAM8.WORD\[2\].W.BYTE\[1\].B.SEL1_B
+ SLICE\[1\].RAM8.WORD\[2\].W.BYTE\[1\].B.Q_WIRE\[7\] BYTE\[1\].FLOATBUF1\[15\].Z
+ VDD VDD VSS VSS gf180mcu_fd_sc_mcu7t5v0__bufz_1
Xfill_23_55 VDD VDD VSS VSS gf180mcu_fd_sc_mcu7t5v0__fill_1
Xfill_23_44 VDD VDD VSS VSS gf180mcu_fd_sc_mcu7t5v0__fill_1
Xfill_23_33 VDD VDD VSS VSS gf180mcu_fd_sc_mcu7t5v0__fill_1
XSLICE\[0\].RAM8.WORD\[0\].W.BYTE\[1\].B.BIT\[2\].OBUF0 SLICE\[0\].RAM8.WORD\[0\].W.BYTE\[1\].B.SEL0_B
+ SLICE\[0\].RAM8.WORD\[0\].W.BYTE\[1\].B.Q_WIRE\[2\] BYTE\[1\].FLOATBUF0\[10\].Z
+ VDD VDD VSS VSS gf180mcu_fd_sc_mcu7t5v0__bufz_1
Xfill_33_371 VDD VDD VSS VSS gf180mcu_fd_sc_mcu7t5v0__fill_1
Xfill_33_360 VDD VDD VSS VSS gf180mcu_fd_sc_mcu7t5v0__fill_1
Xfill_23_88 VDD VDD VSS VSS gf180mcu_fd_sc_mcu7t5v0__fill_1
Xfill_23_77 VDD VDD VSS VSS gf180mcu_fd_sc_mcu7t5v0__fill_1
Xfill_23_66 VDD VDD VSS VSS gf180mcu_fd_sc_mcu7t5v0__fill_1
Xfill_33_393 VDD VDD VSS VSS gf180mcu_fd_sc_mcu7t5v0__fill_1
Xfill_33_382 VDD VDD VSS VSS gf180mcu_fd_sc_mcu7t5v0__fill_1
Xfill_23_99 VDD VDD VSS VSS gf180mcu_fd_sc_mcu7t5v0__fill_1
XSLICE\[3\].RAM8.WORD\[1\].W.BYTE\[3\].B.BIT\[3\].OBUF1 SLICE\[3\].RAM8.WORD\[1\].W.BYTE\[3\].B.SEL1_B
+ SLICE\[3\].RAM8.WORD\[1\].W.BYTE\[3\].B.Q_WIRE\[3\] BYTE\[3\].FLOATBUF1\[27\].Z
+ VDD VDD VSS VSS gf180mcu_fd_sc_mcu7t5v0__bufz_1
Xfill_2_123 VDD VDD VSS VSS gf180mcu_fd_sc_mcu7t5v0__fill_1
Xfill_2_112 VDD VDD VSS VSS gf180mcu_fd_sc_mcu7t5v0__fill_1
Xfill_2_101 VDD VDD VSS VSS gf180mcu_fd_sc_mcu7t5v0__fill_1
XSLICE\[3\].RAM8.WORD\[1\].W.BYTE\[1\].B.BIT\[4\].OBUF0 SLICE\[3\].RAM8.WORD\[1\].W.BYTE\[1\].B.SEL0_B
+ SLICE\[3\].RAM8.WORD\[1\].W.BYTE\[1\].B.Q_WIRE\[4\] BYTE\[1\].FLOATBUF0\[12\].Z
+ VDD VDD VSS VSS gf180mcu_fd_sc_mcu7t5v0__bufz_1
Xfill_2_156 VDD VDD VSS VSS gf180mcu_fd_sc_mcu7t5v0__fill_1
Xfill_2_145 VDD VDD VSS VSS gf180mcu_fd_sc_mcu7t5v0__fill_1
Xfill_2_134 VDD VDD VSS VSS gf180mcu_fd_sc_mcu7t5v0__fill_1
Xfill_2_189 VDD VDD VSS VSS gf180mcu_fd_sc_mcu7t5v0__fill_1
Xfill_2_178 VDD VDD VSS VSS gf180mcu_fd_sc_mcu7t5v0__fill_1
Xfill_2_167 VDD VDD VSS VSS gf180mcu_fd_sc_mcu7t5v0__fill_1
XSLICE\[2\].RAM8.WORD\[2\].W.BYTE\[2\].B.BIT\[6\].genblk1.STORAGE DIBUF\[22\].X SLICE\[2\].RAM8.WORD\[2\].W.BYTE\[2\].B.GCLK
+ SLICE\[2\].RAM8.WORD\[2\].W.BYTE\[2\].B.Q_WIRE\[6\] VDD VDD VSS VSS gf180mcu_fd_sc_mcu7t5v0__latq_1
Xfill_22_8 VDD VDD VSS VSS gf180mcu_fd_sc_mcu7t5v0__fill_1
XSLICE\[2\].RAM8.WORD\[0\].W.BYTE\[0\].B.BIT\[5\].genblk1.STORAGE DIBUF\[5\].X SLICE\[2\].RAM8.WORD\[0\].W.BYTE\[0\].B.GCLK
+ SLICE\[2\].RAM8.WORD\[0\].W.BYTE\[0\].B.Q_WIRE\[5\] VDD VDD VSS VSS gf180mcu_fd_sc_mcu7t5v0__latq_1
Xfill_28_121 VDD VDD VSS VSS gf180mcu_fd_sc_mcu7t5v0__fill_1
Xfill_28_110 VDD VDD VSS VSS gf180mcu_fd_sc_mcu7t5v0__fill_1
Xfill_15_7 VDD VDD VSS VSS gf180mcu_fd_sc_mcu7t5v0__fillcap_8
Xfill_28_154 VDD VDD VSS VSS gf180mcu_fd_sc_mcu7t5v0__fill_1
Xfill_28_143 VDD VDD VSS VSS gf180mcu_fd_sc_mcu7t5v0__fill_1
Xfill_28_132 VDD VDD VSS VSS gf180mcu_fd_sc_mcu7t5v0__fill_1
XSLICE\[1\].RAM8.WORD\[7\].W.BYTE\[1\].B.BIT\[0\].genblk1.STORAGE DIBUF\[8\].X SLICE\[1\].RAM8.WORD\[7\].W.BYTE\[1\].B.GCLK
+ SLICE\[1\].RAM8.WORD\[7\].W.BYTE\[1\].B.Q_WIRE\[0\] VDD VDD VSS VSS gf180mcu_fd_sc_mcu7t5v0__latq_1
Xfill_28_187 VDD VDD VSS VSS gf180mcu_fd_sc_mcu7t5v0__fill_1
Xfill_28_176 VDD VDD VSS VSS gf180mcu_fd_sc_mcu7t5v0__fill_1
Xfill_28_165 VDD VDD VSS VSS gf180mcu_fd_sc_mcu7t5v0__fill_1
XSLICE\[2\].RAM8.WORD\[6\].W.BYTE\[0\].B.BIT\[5\].OBUF1 SLICE\[2\].RAM8.WORD\[6\].W.BYTE\[0\].B.SEL1_B
+ SLICE\[2\].RAM8.WORD\[6\].W.BYTE\[0\].B.Q_WIRE\[5\] BYTE\[0\].FLOATBUF1\[5\].Z VDD
+ VDD VSS VSS gf180mcu_fd_sc_mcu7t5v0__bufz_1
XSLICE\[1\].RAM8.WORD\[1\].W.BYTE\[2\].B.BIT\[1\].genblk1.STORAGE DIBUF\[17\].X SLICE\[1\].RAM8.WORD\[1\].W.BYTE\[2\].B.GCLK
+ SLICE\[1\].RAM8.WORD\[1\].W.BYTE\[2\].B.Q_WIRE\[1\] VDD VDD VSS VSS gf180mcu_fd_sc_mcu7t5v0__latq_1
Xfill_28_198 VDD VDD VSS VSS gf180mcu_fd_sc_mcu7t5v0__fill_1
XSLICE\[1\].RAM8.WORD\[4\].W.BYTE\[0\].B.BIT\[0\].OBUF0 SLICE\[1\].RAM8.WORD\[4\].W.BYTE\[0\].B.SEL0_B
+ SLICE\[1\].RAM8.WORD\[4\].W.BYTE\[0\].B.Q_WIRE\[0\] BYTE\[0\].FLOATBUF0\[0\].Z VDD
+ VDD VSS VSS gf180mcu_fd_sc_mcu7t5v0__bufz_1
XDo1_REG.OUTREG_BYTE\[2\].DIODE\[2\] BYTE\[2\].FLOATBUF1\[18\].Z VDD VDD VSS VSS gf180mcu_fd_sc_mcu7t5v0__antenna
XSLICE\[3\].RAM8.WORD\[3\].W.BYTE\[2\].B.SEL1INV SLICE\[3\].RAM8.WORD\[3\].W.BYTE\[0\].B.SEL1
+ SLICE\[3\].RAM8.WORD\[3\].W.BYTE\[2\].B.SEL1_B VDD VDD VSS VSS gf180mcu_fd_sc_mcu7t5v0__inv_2
XSLICE\[2\].RAM8.WORD\[0\].W.BYTE\[3\].B.BIT\[6\].OBUF0 SLICE\[2\].RAM8.WORD\[0\].W.BYTE\[3\].B.SEL0_B
+ SLICE\[2\].RAM8.WORD\[0\].W.BYTE\[3\].B.Q_WIRE\[6\] BYTE\[3\].FLOATBUF0\[30\].Z
+ VDD VDD VSS VSS gf180mcu_fd_sc_mcu7t5v0__bufz_1
Xtap_2_29 VDD VSS gf180mcu_fd_sc_mcu7t5v0__filltie
Xtap_2_18 VDD VSS gf180mcu_fd_sc_mcu7t5v0__filltie
XSLICE\[2\].RAM8.WORD\[1\].W.BYTE\[3\].B.genblk1.CG SLICE\[2\].RAM8.WORD\[1\].W.BYTE\[3\].B.CLK_B
+ SLICE\[2\].RAM8.WORD\[1\].W.BYTE\[3\].B.WE0_WIRE SLICE\[2\].RAM8.WORD\[1\].W.BYTE\[3\].B.WE0_WIRE
+ SLICE\[2\].RAM8.WORD\[1\].W.BYTE\[3\].B.GCLK VDD VDD VSS VSS gf180mcu_fd_sc_mcu7t5v0__icgtp_1
Xfill_19_121 VDD VDD VSS VSS gf180mcu_fd_sc_mcu7t5v0__fill_1
Xfill_19_110 VDD VDD VSS VSS gf180mcu_fd_sc_mcu7t5v0__fill_1
XSLICE\[0\].RAM8.WORD\[6\].W.BYTE\[3\].B.BIT\[7\].genblk1.STORAGE DIBUF\[31\].X SLICE\[0\].RAM8.WORD\[6\].W.BYTE\[3\].B.GCLK
+ SLICE\[0\].RAM8.WORD\[6\].W.BYTE\[3\].B.Q_WIRE\[7\] VDD VDD VSS VSS gf180mcu_fd_sc_mcu7t5v0__latq_1
Xfill_19_154 VDD VDD VSS VSS gf180mcu_fd_sc_mcu7t5v0__fill_1
Xfill_19_143 VDD VDD VSS VSS gf180mcu_fd_sc_mcu7t5v0__fill_1
Xfill_19_132 VDD VDD VSS VSS gf180mcu_fd_sc_mcu7t5v0__fill_1
XSLICE\[1\].RAM8.WORD\[5\].W.BYTE\[2\].B.BIT\[7\].OBUF1 SLICE\[1\].RAM8.WORD\[5\].W.BYTE\[2\].B.SEL1_B
+ SLICE\[1\].RAM8.WORD\[5\].W.BYTE\[2\].B.Q_WIRE\[7\] BYTE\[2\].FLOATBUF1\[23\].Z
+ VDD VDD VSS VSS gf180mcu_fd_sc_mcu7t5v0__bufz_1
XSLICE\[3\].RAM8.WORD\[0\].W.BYTE\[1\].B.BIT\[0\].OBUF1 SLICE\[3\].RAM8.WORD\[0\].W.BYTE\[1\].B.SEL1_B
+ SLICE\[3\].RAM8.WORD\[0\].W.BYTE\[1\].B.Q_WIRE\[0\] BYTE\[1\].FLOATBUF1\[8\].Z VDD
+ VDD VSS VSS gf180mcu_fd_sc_mcu7t5v0__bufz_1
Xtap_21_14 VDD VSS gf180mcu_fd_sc_mcu7t5v0__filltie
Xfill_19_187 VDD VDD VSS VSS gf180mcu_fd_sc_mcu7t5v0__fill_1
Xfill_19_176 VDD VDD VSS VSS gf180mcu_fd_sc_mcu7t5v0__fill_1
Xfill_19_165 VDD VDD VSS VSS gf180mcu_fd_sc_mcu7t5v0__fill_1
Xfill_1_90 VDD VDD VSS VSS gf180mcu_fd_sc_mcu7t5v0__fill_1
XSLICE\[0\].RAM8.WORD\[3\].W.BYTE\[2\].B.BIT\[2\].OBUF0 SLICE\[0\].RAM8.WORD\[3\].W.BYTE\[2\].B.SEL0_B
+ SLICE\[0\].RAM8.WORD\[3\].W.BYTE\[2\].B.Q_WIRE\[2\] BYTE\[2\].FLOATBUF0\[18\].Z
+ VDD VDD VSS VSS gf180mcu_fd_sc_mcu7t5v0__bufz_1
Xtap_21_47 VDD VSS gf180mcu_fd_sc_mcu7t5v0__filltie
Xtap_21_36 VDD VSS gf180mcu_fd_sc_mcu7t5v0__filltie
Xtap_21_25 VDD VSS gf180mcu_fd_sc_mcu7t5v0__filltie
Xfill_19_198 VDD VDD VSS VSS gf180mcu_fd_sc_mcu7t5v0__fill_1
XSLICE\[0\].RAM8.WORD\[4\].W.BYTE\[1\].B.BIT\[6\].genblk1.STORAGE DIBUF\[14\].X SLICE\[0\].RAM8.WORD\[4\].W.BYTE\[1\].B.GCLK
+ SLICE\[0\].RAM8.WORD\[4\].W.BYTE\[1\].B.Q_WIRE\[6\] VDD VDD VSS VSS gf180mcu_fd_sc_mcu7t5v0__latq_1
XSLICE\[3\].RAM8.WORD\[4\].W.BYTE\[2\].B.BIT\[4\].OBUF0 SLICE\[3\].RAM8.WORD\[4\].W.BYTE\[2\].B.SEL0_B
+ SLICE\[3\].RAM8.WORD\[4\].W.BYTE\[2\].B.Q_WIRE\[4\] BYTE\[2\].FLOATBUF0\[20\].Z
+ VDD VDD VSS VSS gf180mcu_fd_sc_mcu7t5v0__bufz_1
Xfill_18_11 VDD VDD VSS VSS gf180mcu_fd_sc_mcu7t5v0__fill_1
XSLICE\[0\].RAM8.WORD\[0\].W.BYTE\[1\].B.BIT\[6\].OBUF1 SLICE\[0\].RAM8.WORD\[0\].W.BYTE\[1\].B.SEL1_B
+ SLICE\[0\].RAM8.WORD\[0\].W.BYTE\[1\].B.Q_WIRE\[6\] BYTE\[1\].FLOATBUF1\[14\].Z
+ VDD VDD VSS VSS gf180mcu_fd_sc_mcu7t5v0__bufz_1
Xfill_18_44 VDD VDD VSS VSS gf180mcu_fd_sc_mcu7t5v0__fill_1
Xfill_18_33 VDD VDD VSS VSS gf180mcu_fd_sc_mcu7t5v0__fill_1
Xfill_18_22 VDD VDD VSS VSS gf180mcu_fd_sc_mcu7t5v0__fill_1
Xfill_18_77 VDD VDD VSS VSS gf180mcu_fd_sc_mcu7t5v0__fill_1
Xfill_18_66 VDD VDD VSS VSS gf180mcu_fd_sc_mcu7t5v0__fill_1
Xfill_18_55 VDD VDD VSS VSS gf180mcu_fd_sc_mcu7t5v0__fill_1
Xfill_18_99 VDD VDD VSS VSS gf180mcu_fd_sc_mcu7t5v0__fill_1
Xfill_18_88 VDD VDD VSS VSS gf180mcu_fd_sc_mcu7t5v0__fill_1
Xfill_25_113 VDD VDD VSS VSS gf180mcu_fd_sc_mcu7t5v0__fill_1
Xfill_25_102 VDD VDD VSS VSS gf180mcu_fd_sc_mcu7t5v0__fill_1
XSLICE\[1\].RAM8.WORD\[7\].W.BYTE\[1\].B.BIT\[0\].OBUF0 SLICE\[1\].RAM8.WORD\[7\].W.BYTE\[1\].B.SEL0_B
+ SLICE\[1\].RAM8.WORD\[7\].W.BYTE\[1\].B.Q_WIRE\[0\] BYTE\[1\].FLOATBUF0\[8\].Z VDD
+ VDD VSS VSS gf180mcu_fd_sc_mcu7t5v0__bufz_1
Xfill_25_146 VDD VDD VSS VSS gf180mcu_fd_sc_mcu7t5v0__fill_1
Xfill_25_135 VDD VDD VSS VSS gf180mcu_fd_sc_mcu7t5v0__fill_1
Xfill_25_124 VDD VDD VSS VSS gf180mcu_fd_sc_mcu7t5v0__fill_1
XSLICE\[3\].RAM8.WORD\[6\].W.BYTE\[1\].B.DIODE_CLK SLICE\[3\].RAM8.WORD\[6\].W.BYTE\[0\].B.CLK
+ VDD VDD VSS VSS gf180mcu_fd_sc_mcu7t5v0__antenna
Xfill_25_179 VDD VDD VSS VSS gf180mcu_fd_sc_mcu7t5v0__fill_1
Xfill_25_168 VDD VDD VSS VSS gf180mcu_fd_sc_mcu7t5v0__fill_1
Xfill_25_157 VDD VDD VSS VSS gf180mcu_fd_sc_mcu7t5v0__fill_1
Xfill_7_204 VDD VDD VSS VSS gf180mcu_fd_sc_mcu7t5v0__fill_1
Xfill_7_215 VDD VDD VSS VSS gf180mcu_fd_sc_mcu7t5v0__fill_1
Xfill_7_226 VDD VDD VSS VSS gf180mcu_fd_sc_mcu7t5v0__fillcap_32
Xfill_33_190 VDD VDD VSS VSS gf180mcu_fd_sc_mcu7t5v0__fill_1
XSLICE\[3\].RAM8.WORD\[0\].W.BYTE\[2\].B.BIT\[0\].genblk1.STORAGE DIBUF\[16\].X SLICE\[3\].RAM8.WORD\[0\].W.BYTE\[2\].B.GCLK
+ SLICE\[3\].RAM8.WORD\[0\].W.BYTE\[2\].B.Q_WIRE\[0\] VDD VDD VSS VSS gf180mcu_fd_sc_mcu7t5v0__latq_1
XSLICE\[0\].RAM8.WORD\[2\].W.SEL0BUF SLICE\[0\].RAM8.WORD\[2\].W.SEL0 SLICE\[0\].RAM8.WORD\[2\].W.BYTE\[0\].B.SEL0
+ VDD VDD VSS VSS gf180mcu_fd_sc_mcu7t5v0__clkbuf_2
Xfill_6_13 VDD VDD VSS VSS gf180mcu_fd_sc_mcu7t5v0__fill_1
XSLICE\[0\].RAM8.WORD\[1\].W.CLKBUF SLICE\[0\].RAM8.CLKBUF.X SLICE\[0\].RAM8.WORD\[1\].W.BYTE\[0\].B.CLK
+ VDD VDD VSS VSS gf180mcu_fd_sc_mcu7t5v0__clkbuf_4
Xfill_6_24 VDD VDD VSS VSS gf180mcu_fd_sc_mcu7t5v0__fill_1
Xfill_6_35 VDD VDD VSS VSS gf180mcu_fd_sc_mcu7t5v0__fill_1
Xfill_6_46 VDD VDD VSS VSS gf180mcu_fd_sc_mcu7t5v0__fill_1
Xfill_6_57 VDD VDD VSS VSS gf180mcu_fd_sc_mcu7t5v0__fill_1
Xfill_6_68 VDD VDD VSS VSS gf180mcu_fd_sc_mcu7t5v0__fill_1
Xfill_6_79 VDD VDD VSS VSS gf180mcu_fd_sc_mcu7t5v0__fill_1
XSLICE\[1\].RAM8.WORD\[4\].W.BYTE\[0\].B.BIT\[4\].OBUF1 SLICE\[1\].RAM8.WORD\[4\].W.BYTE\[0\].B.SEL1_B
+ SLICE\[1\].RAM8.WORD\[4\].W.BYTE\[0\].B.Q_WIRE\[4\] BYTE\[0\].FLOATBUF1\[4\].Z VDD
+ VDD VSS VSS gf180mcu_fd_sc_mcu7t5v0__bufz_1
Xfill_20_5 VDD VDD VSS VSS gf180mcu_fd_sc_mcu7t5v0__fill_1
XDo1_REG.OUTREG_BYTE\[1\].Do_FF\[3\] BYTE\[1\].FLOATBUF1\[11\].Z Do1_REG.CLKBUF\[1\]
+ Do1[11] VDD VDD VSS VSS gf180mcu_fd_sc_mcu7t5v0__dffq_1
XSLICE\[3\].RAM8.WORD\[3\].W.BYTE\[2\].B.BIT\[0\].OBUF1 SLICE\[3\].RAM8.WORD\[3\].W.BYTE\[2\].B.SEL1_B
+ SLICE\[3\].RAM8.WORD\[3\].W.BYTE\[2\].B.Q_WIRE\[0\] BYTE\[2\].FLOATBUF1\[16\].Z
+ VDD VDD VSS VSS gf180mcu_fd_sc_mcu7t5v0__bufz_1
XSLICE\[0\].RAM8.WORD\[6\].W.BYTE\[3\].B.BIT\[2\].OBUF0 SLICE\[0\].RAM8.WORD\[6\].W.BYTE\[3\].B.SEL0_B
+ SLICE\[0\].RAM8.WORD\[6\].W.BYTE\[3\].B.Q_WIRE\[2\] BYTE\[3\].FLOATBUF0\[26\].Z
+ VDD VDD VSS VSS gf180mcu_fd_sc_mcu7t5v0__bufz_1
Xfill_13_4 VDD VDD VSS VSS gf180mcu_fd_sc_mcu7t5v0__fillcap_16
XSLICE\[3\].RAM8.WORD\[3\].W.BYTE\[0\].B.BIT\[1\].OBUF0 SLICE\[3\].RAM8.WORD\[3\].W.BYTE\[0\].B.SEL0_B
+ SLICE\[3\].RAM8.WORD\[3\].W.BYTE\[0\].B.Q_WIRE\[1\] BYTE\[0\].FLOATBUF0\[1\].Z VDD
+ VDD VSS VSS gf180mcu_fd_sc_mcu7t5v0__bufz_1
Xfill_16_102 VDD VDD VSS VSS gf180mcu_fd_sc_mcu7t5v0__fill_1
Xfill_16_146 VDD VDD VSS VSS gf180mcu_fd_sc_mcu7t5v0__fill_1
Xfill_16_135 VDD VDD VSS VSS gf180mcu_fd_sc_mcu7t5v0__fill_1
Xfill_16_124 VDD VDD VSS VSS gf180mcu_fd_sc_mcu7t5v0__fill_1
Xfill_16_113 VDD VDD VSS VSS gf180mcu_fd_sc_mcu7t5v0__fill_1
Xfill_31_105 VDD VDD VSS VSS gf180mcu_fd_sc_mcu7t5v0__fill_1
Xfill_16_179 VDD VDD VSS VSS gf180mcu_fd_sc_mcu7t5v0__fill_1
Xfill_16_168 VDD VDD VSS VSS gf180mcu_fd_sc_mcu7t5v0__fill_1
Xfill_16_157 VDD VDD VSS VSS gf180mcu_fd_sc_mcu7t5v0__fill_1
Xfill_31_138 VDD VDD VSS VSS gf180mcu_fd_sc_mcu7t5v0__fill_1
Xfill_31_127 VDD VDD VSS VSS gf180mcu_fd_sc_mcu7t5v0__fill_1
Xfill_31_116 VDD VDD VSS VSS gf180mcu_fd_sc_mcu7t5v0__fill_1
XSLICE\[2\].RAM8.WORD\[5\].W.BYTE\[3\].B.BIT\[6\].genblk1.STORAGE DIBUF\[30\].X SLICE\[2\].RAM8.WORD\[5\].W.BYTE\[3\].B.GCLK
+ SLICE\[2\].RAM8.WORD\[5\].W.BYTE\[3\].B.Q_WIRE\[6\] VDD VDD VSS VSS gf180mcu_fd_sc_mcu7t5v0__latq_1
XSLICE\[3\].RAM8.WORD\[7\].W.BYTE\[3\].B.BIT\[4\].OBUF0 SLICE\[3\].RAM8.WORD\[7\].W.BYTE\[3\].B.SEL0_B
+ SLICE\[3\].RAM8.WORD\[7\].W.BYTE\[3\].B.Q_WIRE\[4\] BYTE\[3\].FLOATBUF0\[28\].Z
+ VDD VDD VSS VSS gf180mcu_fd_sc_mcu7t5v0__bufz_1
Xfill_31_149 VDD VDD VSS VSS gf180mcu_fd_sc_mcu7t5v0__fill_1
Xfill_24_190 VDD VDD VSS VSS gf180mcu_fd_sc_mcu7t5v0__fill_1
XSLICE\[2\].RAM8.WORD\[3\].W.BYTE\[1\].B.BIT\[5\].genblk1.STORAGE DIBUF\[13\].X SLICE\[2\].RAM8.WORD\[3\].W.BYTE\[1\].B.GCLK
+ SLICE\[2\].RAM8.WORD\[3\].W.BYTE\[1\].B.Q_WIRE\[5\] VDD VDD VSS VSS gf180mcu_fd_sc_mcu7t5v0__latq_1
XSLICE\[0\].RAM8.WORD\[3\].W.BYTE\[0\].B.BIT\[7\].OBUF0 SLICE\[0\].RAM8.WORD\[3\].W.BYTE\[0\].B.SEL0_B
+ SLICE\[0\].RAM8.WORD\[3\].W.BYTE\[0\].B.Q_WIRE\[7\] BYTE\[0\].FLOATBUF0\[7\].Z VDD
+ VDD VSS VSS gf180mcu_fd_sc_mcu7t5v0__bufz_1
XSLICE\[0\].RAM8.WORD\[3\].W.BYTE\[2\].B.BIT\[6\].OBUF1 SLICE\[0\].RAM8.WORD\[3\].W.BYTE\[2\].B.SEL1_B
+ SLICE\[0\].RAM8.WORD\[3\].W.BYTE\[2\].B.Q_WIRE\[6\] BYTE\[2\].FLOATBUF1\[22\].Z
+ VDD VDD VSS VSS gf180mcu_fd_sc_mcu7t5v0__bufz_1
XSLICE\[1\].RAM8.WORD\[4\].W.BYTE\[3\].B.BIT\[1\].genblk1.STORAGE DIBUF\[25\].X SLICE\[1\].RAM8.WORD\[4\].W.BYTE\[3\].B.GCLK
+ SLICE\[1\].RAM8.WORD\[4\].W.BYTE\[3\].B.Q_WIRE\[1\] VDD VDD VSS VSS gf180mcu_fd_sc_mcu7t5v0__latq_1
Xtap_16_36 VDD VSS gf180mcu_fd_sc_mcu7t5v0__filltie
Xtap_16_25 VDD VSS gf180mcu_fd_sc_mcu7t5v0__filltie
Xtap_16_14 VDD VSS gf180mcu_fd_sc_mcu7t5v0__filltie
Xtap_16_47 VDD VSS gf180mcu_fd_sc_mcu7t5v0__filltie
XSLICE\[1\].RAM8.WORD\[2\].W.BYTE\[1\].B.BIT\[0\].genblk1.STORAGE DIBUF\[8\].X SLICE\[1\].RAM8.WORD\[2\].W.BYTE\[1\].B.GCLK
+ SLICE\[1\].RAM8.WORD\[2\].W.BYTE\[1\].B.Q_WIRE\[0\] VDD VDD VSS VSS gf180mcu_fd_sc_mcu7t5v0__latq_1
Xtap_32_13 VDD VSS gf180mcu_fd_sc_mcu7t5v0__filltie
XSLICE\[2\].RAM8.WORD\[2\].W.BYTE\[2\].B.BIT\[3\].OBUF0 SLICE\[2\].RAM8.WORD\[2\].W.BYTE\[2\].B.SEL0_B
+ SLICE\[2\].RAM8.WORD\[2\].W.BYTE\[2\].B.Q_WIRE\[3\] BYTE\[2\].FLOATBUF0\[19\].Z
+ VDD VDD VSS VSS gf180mcu_fd_sc_mcu7t5v0__bufz_1
Xtap_32_57 VDD VSS gf180mcu_fd_sc_mcu7t5v0__filltie
Xtap_32_46 VDD VSS gf180mcu_fd_sc_mcu7t5v0__filltie
Xtap_32_35 VDD VSS gf180mcu_fd_sc_mcu7t5v0__filltie
Xtap_32_24 VDD VSS gf180mcu_fd_sc_mcu7t5v0__filltie
Xfill_22_105 VDD VDD VSS VSS gf180mcu_fd_sc_mcu7t5v0__fill_1
Xfill_22_138 VDD VDD VSS VSS gf180mcu_fd_sc_mcu7t5v0__fill_1
Xfill_22_127 VDD VDD VSS VSS gf180mcu_fd_sc_mcu7t5v0__fill_1
Xfill_22_116 VDD VDD VSS VSS gf180mcu_fd_sc_mcu7t5v0__fill_1
Xfill_22_149 VDD VDD VSS VSS gf180mcu_fd_sc_mcu7t5v0__fill_1
Xfill_15_190 VDD VDD VSS VSS gf180mcu_fd_sc_mcu7t5v0__fill_1
Xfill_4_207 VDD VDD VSS VSS gf180mcu_fd_sc_mcu7t5v0__fill_1
XSLICE\[3\].RAM8.WORD\[6\].W.BYTE\[3\].B.genblk1.CG SLICE\[3\].RAM8.WORD\[6\].W.BYTE\[3\].B.CLK_B
+ SLICE\[3\].RAM8.WORD\[6\].W.BYTE\[3\].B.WE0_WIRE SLICE\[3\].RAM8.WORD\[6\].W.BYTE\[3\].B.WE0_WIRE
+ SLICE\[3\].RAM8.WORD\[6\].W.BYTE\[3\].B.GCLK VDD VDD VSS VSS gf180mcu_fd_sc_mcu7t5v0__icgtp_1
Xfill_30_171 VDD VDD VSS VSS gf180mcu_fd_sc_mcu7t5v0__fill_1
Xfill_30_160 VDD VDD VSS VSS gf180mcu_fd_sc_mcu7t5v0__fill_1
Xfill_20_34 VDD VDD VSS VSS gf180mcu_fd_sc_mcu7t5v0__fill_1
Xfill_20_23 VDD VDD VSS VSS gf180mcu_fd_sc_mcu7t5v0__fill_1
Xfill_20_12 VDD VDD VSS VSS gf180mcu_fd_sc_mcu7t5v0__fill_1
Xfill_4_218 VDD VSS gf180mcu_fd_sc_mcu7t5v0__filltie
XDo0_REG.OUTREG_BYTE\[3\].Do_FF\[6\] BYTE\[3\].FLOATBUF0\[30\].Z Do0_REG.CLKBUF\[3\]
+ Do0[30] VDD VDD VSS VSS gf180mcu_fd_sc_mcu7t5v0__dffq_1
Xfill_30_193 VDD VDD VSS VSS gf180mcu_fd_sc_mcu7t5v0__fill_1
Xfill_30_182 VDD VDD VSS VSS gf180mcu_fd_sc_mcu7t5v0__fill_1
Xfill_20_78 VDD VDD VSS VSS gf180mcu_fd_sc_mcu7t5v0__fill_1
Xfill_20_67 VDD VDD VSS VSS gf180mcu_fd_sc_mcu7t5v0__fill_1
Xfill_20_56 VDD VDD VSS VSS gf180mcu_fd_sc_mcu7t5v0__fill_1
Xfill_20_45 VDD VDD VSS VSS gf180mcu_fd_sc_mcu7t5v0__fill_1
Xfill_20_89 VDD VDD VSS VSS gf180mcu_fd_sc_mcu7t5v0__fill_1
Xfill_0_413 VDD VDD VSS VSS gf180mcu_fd_sc_mcu7t5v0__fill_1
Xfill_0_402 VDD VDD VSS VSS gf180mcu_fd_sc_mcu7t5v0__fill_1
Xtap_3_50 VDD VSS gf180mcu_fd_sc_mcu7t5v0__filltie
Xfill_29_21 VDD VDD VSS VSS gf180mcu_fd_sc_mcu7t5v0__fill_1
Xfill_29_10 VDD VDD VSS VSS gf180mcu_fd_sc_mcu7t5v0__fill_1
XSLICE\[1\].RAM8.WORD\[7\].W.BYTE\[1\].B.BIT\[4\].OBUF1 SLICE\[1\].RAM8.WORD\[7\].W.BYTE\[1\].B.SEL1_B
+ SLICE\[1\].RAM8.WORD\[7\].W.BYTE\[1\].B.Q_WIRE\[4\] BYTE\[1\].FLOATBUF1\[12\].Z
+ VDD VDD VSS VSS gf180mcu_fd_sc_mcu7t5v0__bufz_1
Xfill_0_446 VDD VDD VSS VSS gf180mcu_fd_sc_mcu7t5v0__fill_1
Xfill_0_435 VDD VDD VSS VSS gf180mcu_fd_sc_mcu7t5v0__fill_1